%chk=C:\Users\Danny\Documents\Gaussian\thiourea\cat_H-amide_E-Ph-pddg-pcm.chk
# hf/3-21g geom=connectivity

Title Card Required

0 1
 C                  0.06653547    0.25922222   -0.00134317
 S                  0.84919633    1.61607553   -0.00118793
 N                 -1.40346193    0.26154910   -0.00283716
 H                 -1.73670815   -0.20812829   -0.82036398
 N                  0.79699343   -1.01644599    0.00000000
 H                  0.55278332   -1.53953500    0.81654106
 C                 -1.89577911   -0.43239980    1.19589497
 H                 -1.84475529   -1.49003882    1.04195900
 C                  0.44024247   -1.78663292   -1.20018367
 C                 -0.31752617   -2.95203010   -1.08140864
 C                  0.85918023   -1.35232894   -2.45772864
 C                 -0.65566213   -3.68326059   -2.21991108
 H                 -0.64700218   -3.29457681   -0.08976904
 C                  0.52018980   -2.08313433   -3.59677159
 H                  1.45627545   -0.43373999   -2.55154052
 C                 -0.23699240   -3.24851795   -3.47805695
 H                 -1.25240886   -4.60218865   -2.12631046
 H                  0.85029517   -1.74024017   -4.58819898
 H                 -0.50377168   -3.82520061   -4.37558815
 C                 -1.02479730   -0.04719007    2.40610328
 C                 -0.76039373    1.46981140    2.38617134
 H                 -1.19620589    1.91924554    3.25391365
 H                  0.29466847    1.64796579    2.38398909
 H                 -1.19593490    1.89624294    1.50676243
 C                 -1.75824527   -0.42337980    3.70692431
 H                 -2.18433613   -1.39973796    3.60656830
 H                 -1.06454331   -0.41897711    4.52157651
 H                 -2.53545965    0.28719725    3.89644494
 C                  0.31522861   -0.80279230    2.33542196
 H                  0.16703799   -1.74764639    1.85564046
 H                  1.02116292   -0.22542427    1.77577662
 H                  0.68854149   -0.96030236    3.32573912
 C                 -3.35595768   -0.02239385    1.46305349
 O                 -4.28109814   -0.86888487    1.35751368
 C                 -4.57042138    2.08173435    0.80928061
 C                 -4.42966819    1.46252799    3.18791446
 C                 -5.81549266    2.60975670    1.50717107
 C                 -5.75980846    2.16709080    2.96228667
 H                 -3.82646674    2.00302835    3.96005468
 H                 -4.59747261    0.42414649    3.56953150
 H                 -5.85399833    3.72638909    1.44168714
 H                 -6.73960287    2.21927550    1.01219645
 H                 -5.85788294    3.04865372    3.64418392
 H                 -6.60993208    1.47668048    3.19253992
 N                 -3.68510105    1.42850752    1.86073407
 ?s                -5.57400617    0.30297854   -0.05132755
 ?s                -4.70057638    0.52071147   -2.27101620
 H                 -4.83955874    1.37066037    0.05639358
 C                 -3.81901217    3.22585495    0.10360912
 C                 -3.75128068    3.26102470   -1.28946193
 C                 -3.20624873    4.22701084    0.85710496
 C                 -3.07034305    4.29678819   -1.92878945
 H                 -4.23382062    2.47116600   -1.88319608
 C                 -2.52590386    5.26369461    0.21770876
 H                 -3.25968541    4.19954257    1.95506627
 C                 -2.45774307    5.29866432   -1.17501097
 H                 -3.01637907    4.32423617   -3.02680175
 H                 -2.04321288    6.05314776    0.81205494
 H                 -1.92095456    6.11525817   -1.67932132

 1 2 2.0 3 1.0 5 1.0
 2
 3 4 1.0 7 1.0
 4
 5 6 1.0 9 1.0
 6
 7 8 1.0 20 1.0 33 1.0
 8
 9 10 1.5 11 1.5
 10 12 1.5 13 1.0
 11 14 1.5 15 1.0
 12 16 1.5 17 1.0
 13
 14 16 1.5 18 1.0
 15
 16 19 1.0
 17
 18
 19
 20 21 1.0 25 1.0 29 1.0
 21 22 1.0 23 1.0 24 1.0
 22
 23
 24
 25 26 1.0 27 1.0 28 1.0
 26
 27
 28
 29 30 1.0 31 1.0 32 1.0
 30
 31
 32
 33 34 2.0 45 1.0
 34
 35 37 1.0 45 1.0 48 1.0 49 1.0
 36 38 1.0 39 1.0 40 1.0 45 1.0
 37 38 1.0 41 1.0 42 1.0
 38 43 1.0 44 1.0
 39
 40
 41
 42
 43
 44
 45
 46
 47
 48
 49 50 1.5 51 1.5
 50 52 1.5 53 1.0
 51 54 1.5 55 1.0
 52 56 1.5 57 1.0
 53
 54 56 1.5 58 1.0
 55
 56 59 1.0
 57
 58
 59

